<?xml version="1.0" encoding="UTF-8" standalone="no"?>
<recordset table="application">
  <record id="application=&quot;cm.open.save&quot; and label=&quot;call.base.add&quot;" recordid="cm.open.save - call.base.add">
    <application type="string">cm.open.save</application>
    <label type="label">call.base.add</label>
    <comments NullValue="1" type="string"/>
    <normal type="label">call.base.add.exit</normal>
    <error type="label">decide.nosave2</error>
    <format type="string">se.base.method</format>
    <file type="globalVar">$L.file</file>
    <all.null NullValue="1" type="label"/>
    <key.null NullValue="1" type="label"/>
    <key.dupl NullValue="1" type="label"/>
    <second.file type="globalVar">$L.file.save</second.file>
    <target.file NullValue="1" type="file"/>
    <record NullValue="1" type="file"/>
    <query type="globalVar">$L.act</query>
    <name type="globalVar">$L.related.filename</name>
    <names sctype="globalVar">$L.base.var.names</names>
    <values sctype="globalVar">$L.base.values</values>
    <prompt type="globalVar">$L.act</prompt>
    <condition NullValue="1" sctype="array">
      <condition NullValue="1" type="boolean"/>
    </condition>
    <option NullValue="1" sctype="array">
      <option NullValue="1" type="decimal"/>
    </option>
    <description NullValue="1" sctype="array">
      <description NullValue="1" type="string"/>
    </description>
    <exit NullValue="1" sctype="array">
      <exit NullValue="1" type="label"/>
    </exit>
    <index type="globalVar">$L.related.id</index>
    <empty NullValue="1" type="label"/>
    <one.rec NullValue="1" type="label"/>
    <text type="globalVar">$L.exit</text>
    <statements NullValue="1" sctype="array">
      <statements NullValue="1" type="expression"/>
    </statements>
    <cond.input type="globalVar">$L.same</cond.input>
    <sort NullValue="1" sctype="array">
      <sort NullValue="1" type="string"/>
    </sort>
    <types NullValue="1" sctype="array">
      <types NullValue="1" type="string"/>
    </types>
    <levels NullValue="1" sctype="array">
      <levels NullValue="1" type="decimal"/>
    </levels>
    <numbers NullValue="1" sctype="array">
      <numbers NullValue="1" type="decimal"/>
    </numbers>
    <number1 NullValue="1" type="decimal"/>
    <string1 type="globalVar">$L.suppress</string1>
    <time1 NullValue="1" type="dateTime"/>
    <boolean1 type="globalVar">$L.bg</boolean1>
    <times NullValue="1" sctype="array">
      <times NullValue="1" type="dateTime"/>
    </times>
    <expressions NullValue="1" sctype="array">
      <expressions NullValue="1" type="expression"/>
    </expressions>
    <comments.more NullValue="1" sctype="array">
      <comments.more NullValue="1" type="string"/>
    </comments.more>
    <file.variables NullValue="1" sctype="array">
      <file.variables NullValue="1" type="file"/>
    </file.variables>
    <second.record type="globalVar">$L.object</second.record>
    <booleans NullValue="1" sctype="array">
      <booleans NullValue="1" type="boolean"/>
    </booleans>
    <table NullValue="1" type="unknown"/>
    <tables sctype="globalVar">$L.cat.vars</tables>
    <sysmodcount type="decimal">4</sysmodcount>
    <sysmoduser type="string">falcon</sysmoduser>
    <sysmodtime type="dateTime">11/29/15 23:09:02</sysmodtime>
  </record>
</recordset>
